Version 4
SHEET 1 2548 1268
WIRE -944 -704 -976 -704
WIRE -864 -704 -944 -704
WIRE -688 -704 -784 -704
WIRE 144 -704 -688 -704
WIRE 144 -608 144 -704
WIRE -288 -576 -560 -576
WIRE -288 -544 -288 -576
WIRE -240 -544 -288 -544
WIRE -112 -528 -176 -528
WIRE -32 -528 -112 -528
WIRE 96 -528 32 -528
WIRE -240 -512 -288 -512
WIRE 0 -464 0 -512
WIRE 144 -464 144 -512
WIRE 144 -464 0 -464
WIRE -688 -432 -688 -704
WIRE -288 -432 -288 -512
WIRE -288 -432 -384 -432
WIRE -976 -416 -976 -704
WIRE 144 -400 144 -464
WIRE 240 -400 144 -400
WIRE 368 -400 320 -400
WIRE 576 -400 448 -400
WIRE 672 -400 576 -400
WIRE 736 -400 672 -400
WIRE 848 -400 736 -400
WIRE 1152 -400 848 -400
WIRE 576 -368 576 -400
WIRE 736 -352 736 -400
WIRE 848 -352 848 -400
WIRE 144 -320 144 -400
WIRE 576 -288 576 -304
WIRE 848 -224 848 -272
WIRE 944 -176 896 -176
WIRE 1008 -176 944 -176
WIRE -976 -128 -976 -336
WIRE -688 -128 -688 -368
WIRE 144 -128 144 -256
WIRE 576 -80 576 -208
WIRE 656 -80 576 -80
WIRE 736 -80 736 -272
WIRE 736 -80 656 -80
WIRE 848 -80 848 -128
WIRE 848 -80 736 -80
WIRE 144 -48 16 -48
WIRE 352 -48 208 -48
WIRE 656 -48 656 -80
WIRE 16 32 16 -48
WIRE 64 32 16 32
WIRE 224 32 144 32
WIRE 352 32 352 -48
WIRE 352 32 288 32
WIRE 352 112 352 32
WIRE 432 112 352 112
WIRE 1152 112 1152 -400
WIRE 1152 112 512 112
WIRE 352 160 352 112
WIRE 352 160 128 160
WIRE -560 176 -560 -576
WIRE -448 176 -560 176
WIRE -304 176 -448 176
WIRE -208 176 -240 176
WIRE 16 176 16 32
WIRE 16 176 -208 176
WIRE 64 176 16 176
WIRE 288 192 128 192
WIRE 288 240 288 192
WIRE 288 352 288 320
FLAG -976 -128 0
FLAG 656 -48 0
FLAG 672 -400 o
FLAG 144 -128 0
FLAG -112 -528 pwm
FLAG -944 -704 dc
FLAG -208 176 d
FLAG 288 352 0
FLAG -688 -128 0
FLAG -448 176 d1
FLAG 944 -176 step
SYMBOL voltage -976 -432 R0
WINDOW 123 0 0 Left 2
WINDOW 39 0 0 Left 2
WINDOW 0 48 32 Left 2
WINDOW 3 48 73 Left 2
SYMATTR InstName V1
SYMATTR Value 10
SYMBOL cap 560 -368 R0
WINDOW 0 -57 7 Left 2
WINDOW 3 -60 42 Left 2
SYMATTR InstName C1
SYMATTR Value 33µ
SYMBOL res 720 -368 R0
SYMATTR InstName R8
SYMATTR Value 2
SYMBOL ind2 224 -384 R270
WINDOW 0 32 56 VTop 2
WINDOW 3 5 56 VBottom 2
SYMATTR InstName L1
SYMATTR Value 10µ
SYMATTR Type ind
SYMBOL res 464 -416 R90
WINDOW 0 0 56 VBottom 2
WINDOW 3 32 56 VTop 2
SYMATTR InstName R1
SYMATTR Value 0.05
SYMBOL res 560 -304 R0
SYMATTR InstName R3
SYMATTR Value 0.1
SYMBOL Control\\sawtooth -416 -432 R0
WINDOW 3 1 100 Bottom 2
WINDOW 123 -2 66 Bottom 2
SYMATTR Value2 f=200k
SYMATTR InstName U2
SYMBOL Control\\comp -208 -528 R0
WINDOW 3 -10 38 Left 2
WINDOW 123 -7 65 Left 2
SYMATTR Value Vhigh=15
SYMATTR Value2 Vlow=0
SYMATTR InstName U3
SYMBOL Control\\idiode 160 -256 R180
WINDOW 0 -42 64 Left 2
WINDOW 38 -78 30 Left 2
WINDOW 3 54 36 Left 2
WINDOW 123 45 6 Left 2
SYMATTR InstName U7
SYMBOL voltage 288 224 M0
WINDOW 123 0 0 Left 0
WINDOW 39 0 0 Left 0
WINDOW 0 -107 32 Left 2
WINDOW 3 -69 70 Left 2
SYMATTR InstName Vref1
SYMATTR Value 5
SYMBOL res 160 16 R90
WINDOW 0 0 56 VBottom 2
WINDOW 3 32 56 VTop 2
SYMATTR InstName R2
SYMATTR Value 1.59k
SYMBOL cap 288 16 R90
WINDOW 0 0 32 VBottom 2
WINDOW 3 32 32 VTop 2
SYMATTR InstName C2
SYMATTR Value 100n
SYMBOL res 528 96 R90
WINDOW 0 0 56 VBottom 2
WINDOW 3 32 56 VTop 2
SYMATTR InstName R4
SYMATTR Value 22.7k
SYMBOL MyOpamp 96 176 R180
WINDOW 39 57 -98 Center 2
WINDOW 40 52 -66 Center 2
WINDOW 0 16 28 Left 2
WINDOW 38 15 -34 Left 2
SYMATTR SpiceLine2 Ao=1e6 FBW=10e6
SYMATTR InstName U5
SYMBOL Control\\limiter -272 176 R180
WINDOW 0 19 44 Bottom 2
WINDOW 38 38 -16 Bottom 2
WINDOW 3 39 -42 Bottom 2
WINDOW 123 40 -70 Bottom 2
SYMATTR InstName U8
SYMATTR Value vth=0.8
SYMBOL ind -880 -688 R270
WINDOW 0 32 56 VTop 2
WINDOW 3 5 56 VBottom 2
SYMATTR InstName L2
SYMATTR Value 100µ
SYMBOL cap -704 -432 R0
SYMATTR InstName C3
SYMATTR Value 10µ
SYMBOL cap 208 -64 R90
WINDOW 0 0 32 VBottom 2
WINDOW 3 32 32 VTop 2
SYMATTR InstName C4
SYMATTR Value 10n
SYMBOL nmos 96 -608 R0
SYMATTR InstName M1
SYMATTR Value IRFZ48Z
SYMBOL Control\\driver 0 -528 R0
SYMATTR InstName U1
SYMBOL Control\\switch 848 -176 M0
SYMATTR InstName U4
SYMBOL res 832 -368 R0
SYMATTR InstName R5
SYMATTR Value 2
SYMBOL Control\\step 1040 -176 R180
WINDOW 3 -2 -66 Bottom 2
WINDOW 123 -2 -94 Bottom 2
SYMATTR Value2 td=10m SR=1e8
SYMATTR InstName U6
TEXT 536 -536 Left 2 !.options reltol=10m
TEXT 544 -600 Left 2 !.tran 0 15m 5m 0.1u uic
